/*--------------------------------*- C++ -*----------------------------------*\
  =========                 |
  \\      /  F ield         | OpenFOAM: The Open Source CFD Toolbox
   \\    /   O peration     | Website:  https://openfoam.org
    \\  /    A nd           | Version:  7
     \\/     M anipulation  |
\*---------------------------------------------------------------------------*/
FoamFile
{
    version     2.0;
    format      ascii;
    class       volScalarField;
    location    "0";
    object      omega;
}
// * * * * * * * * * * * * * * * * * * * * * * * * * * * * * * * * * * * * * //

dimensions      [0 0 -1 0 0 0 0];

internalField   uniform 2000;

boundaryField
{
    inlet
    {
    	type            turbulentMixingLengthDissipationRateInlet;
    	mixingLength    0.00134;
		value $internalField;
    }
    majorOutlet
    {
        type            zeroGradient;
    }
    minorOutlet
    {
        type            zeroGradient;
    }
    minorOutlet
    {
        type            zeroGradient;
    }
    conversion
    {
        type            omegaWallFunction;
        value           $internalField;
    }
    conv_to_nozzle
    {
        type            omegaWallFunction;
        value           $internalField;
    }
    nozzle
    {
        type            omegaWallFunction;
        value           $internalField;
    }

	nozzle_bottom
    {
        type            omegaWallFunction;
        value           $internalField;
    }
	nozzle_out
    {
        type            omegaWallFunction;
        value           $internalField;
    }
	major_top
    {
        type            omegaWallFunction;
        value           $internalField;
    }
	major_side
    {
        type            omegaWallFunction;
        value           $internalField;
    }
	majorOut_out
    {
        type            omegaWallFunction;
        value           $internalField;
    }
	majorOut_in
    {
        type            omegaWallFunction;
        value           $internalField;
    }	
	majorOut_curve
    {
        type            omegaWallFunction;
        value           $internalField;
    }								
	major_bottom
    {
        type            omegaWallFunction;
        value           $internalField;
    }
	recieving_out
    {
        type            omegaWallFunction;
        value           $internalField;
    }
	recieving_top
    {
        type            omegaWallFunction;
        value           $internalField;
    }
	recieving
    {
        type            omegaWallFunction;
        value           $internalField;
    }
	recieving_expand
    {
        type            omegaWallFunction;
        value           $internalField;
    }
	minor_wall
    {
        type            omegaWallFunction;
        value           $internalField;
    }
	axis
    {
		type symmetryPlane;
    }
	topEmptyFaces
	{
		type empty;
	}
	bottomEmptyFaces
	{
		type empty;
	}


 
}


// ************************************************************************* //
