/*--------------------------------*- C++ -*----------------------------------*\
| =========                 |                                                 |
| \\      /  F ield         | OpenFOAM: The Open Source CFD Toolbox           |
|  \\    /   O peration     | Version:  v2012                                 |
|   \\  /    A nd           | Website:  www.openfoam.com                      |
|    \\/     M anipulation  |                                                 |
\*---------------------------------------------------------------------------*/
FoamFile
{
    version   2.0;
    format    ascii;
    class     dictionary;
    location  "system";
    object    meshDict;
}

surfaceFile "VI.stl";

renameBoundary
{
	newPatchNames
	{
		inletRound
		{
			newName inletRound;
			type wall;
		}
		conversion
		{
			newName conversion;
			type wall;
		}
		conv_to_nozzle
		{
			newName conv_to_nozzle;
			type wall;
		}
		nozzle
		{
			newName nozzle;
			type wall;
		}
		nozzleOutlet
		{
			newName nozzleOutlet;
			type wall;
		}
		axis
		{
			newName axis;
			type symmetryPlane;
		}
		inlet
		{
			newName inlet;
			type patch;
		}
		inletWall
		{
			newName inletWall;
			type wall;
		}
	}
}
/*
scale = 0.5 (or maxCellSize = 0.01) is sufficient if the nozzle diameter is > 0.014 inch
smaller value may be required if nozzle diameter is < 0.014 inch or supersonic flow
*/

scale 0.5; 

minMaxCellSize #calc "0.02*$scale";
maxCellSize $minMaxCellSize;


// boundary layer need refinement
boundaryLayers
{
	nLayers 4;
	thicknessRatio 1.;
}


// use this part to refine the classification part
// !!!!!!!!! check p0 and p1 !!!!!!!!!!!!

/*
fine1 #calc "0.5*$minMaxCellSize";
fine2 #calc "0.75*$minMaxCellSize";	

objectRefinements
{
	cylinder1
	{
		cellSize $fine1;
		type cone;
		p0 (0 -7 0);
		radius0 1;
		p1 (0 -2.5 0);
		radius1 1;
	}

	cylinder2
	{
		cellSize $fine2;
		type cone;
		p0 (0 -10 0);
		radius0 2.5;
		p1 (0 0 0);
		radius1 2.5;
	}

}
*/




// ************************************************************************* //
